version 2
1
9
.tran 100m 2{return}.kicad adjustpaths{return}.save all{return}.probe alli
2
1
V(Net-_J4-Pin_1_)
 
1
V(Net-_J5-Pin_1_)
 
